Version 4
SHEET 1 2264 1320
WIRE 1680 -80 1488 -80
WIRE 1904 -80 1680 -80
WIRE 208 -64 16 -64
WIRE 432 -64 208 -64
WIRE 1488 -64 1488 -80
WIRE 16 -48 16 -64
WIRE 1680 -48 1680 -80
WIRE 208 -32 208 -64
WIRE 1680 64 1680 32
WIRE 2064 64 1680 64
WIRE 2176 64 2128 64
WIRE 2192 64 2176 64
WIRE 208 80 208 48
WIRE 592 80 208 80
WIRE 704 80 656 80
WIRE 1680 96 1680 64
WIRE 1904 96 1904 -80
WIRE 208 112 208 80
WIRE 432 112 432 -64
WIRE 2176 112 2176 64
WIRE 704 128 704 80
WIRE 1120 176 1040 176
WIRE 1328 176 1200 176
WIRE 1488 176 1488 16
WIRE 1488 176 1392 176
WIRE 1632 176 1488 176
WIRE -352 192 -432 192
WIRE -144 192 -272 192
WIRE 16 192 16 32
WIRE 16 192 -80 192
WIRE 160 192 16 192
WIRE 1040 208 1040 176
WIRE -432 224 -432 192
WIRE 1488 224 1488 176
WIRE 16 240 16 192
WIRE 1680 288 1680 192
WIRE 1904 288 1904 176
WIRE 2176 288 2176 192
WIRE 208 304 208 208
WIRE 432 304 432 192
WIRE 704 304 704 208
WIRE 1488 336 1488 304
WIRE 16 352 16 320
WIRE 1040 352 1040 288
WIRE -432 368 -432 304
WIRE 432 848 208 848
WIRE 208 880 208 848
WIRE 208 992 208 960
WIRE 592 992 208 992
WIRE 704 992 656 992
WIRE 208 1024 208 992
WIRE 16 1104 -432 1104
WIRE 160 1104 16 1104
WIRE -432 1136 -432 1104
WIRE 208 1216 208 1120
WIRE 704 1216 704 1120
WIRE -432 1280 -432 1216
FLAG 208 304 0
FLAG 432 304 0
FLAG 704 304 0
FLAG 16 352 0
FLAG -432 368 0
FLAG 208 80 VD
FLAG 16 192 VGS
FLAG 1680 288 0
FLAG 1904 288 0
FLAG 2176 288 0
FLAG 1488 336 0
FLAG 1040 352 0
FLAG 1680 64 VD2
FLAG 1488 176 VGS2
FLAG 704 80 Vo
FLAG 208 1216 0
FLAG 704 1216 0
FLAG -432 1280 0
FLAG 208 992 VD3
FLAG 16 1104 VGS3
FLAG 704 992 Vo3
FLAG 432 928 0
SYMBOL nmos 160 112 R0
SYMATTR InstName M1
SYMATTR Value my_IRFP240
SYMBOL voltage 432 96 R0
WINDOW 123 0 0 Left 0
WINDOW 39 0 0 Left 0
SYMATTR InstName V1
SYMATTR Value 9
SYMBOL res 192 -48 R0
SYMATTR InstName R1
SYMATTR Value 8
SYMBOL cap 656 64 R90
WINDOW 0 0 32 VBottom 2
WINDOW 3 32 32 VTop 2
SYMATTR InstName C1
SYMATTR Value 220µ
SYMBOL res 688 112 R0
SYMATTR InstName R2
SYMATTR Value 8
SYMBOL res 0 -64 R0
SYMATTR InstName R3
SYMATTR Value 500k
SYMBOL res 0 224 R0
SYMATTR InstName R4
SYMATTR Value 520k
SYMBOL cap -80 176 R90
WINDOW 0 0 32 VBottom 2
WINDOW 3 32 32 VTop 2
SYMATTR InstName C2
SYMATTR Value 10µ
SYMBOL res -256 176 R90
WINDOW 0 0 56 VBottom 2
WINDOW 3 32 56 VTop 2
SYMATTR InstName R5
SYMATTR Value 2.2K
SYMBOL voltage -432 208 R0
WINDOW 123 0 0 Left 0
WINDOW 39 0 0 Left 0
SYMATTR InstName V2
SYMATTR Value SINE(0 100m 1k)
SYMBOL nmos 1632 96 R0
SYMATTR InstName M2
SYMATTR Value my_IRFP240
SYMBOL voltage 1904 80 R0
WINDOW 123 0 0 Left 0
WINDOW 39 0 0 Left 0
SYMATTR InstName V3
SYMATTR Value 9
SYMBOL res 1664 -64 R0
SYMATTR InstName R6
SYMATTR Value 7.13
SYMBOL cap 2128 48 R90
WINDOW 0 0 32 VBottom 2
WINDOW 3 32 32 VTop 2
SYMATTR InstName C3
SYMATTR Value 220µ
SYMBOL res 2160 96 R0
SYMATTR InstName R7
SYMATTR Value 1Meg
SYMBOL res 1472 -80 R0
SYMATTR InstName R8
SYMATTR Value 500K
SYMBOL res 1472 208 R0
SYMATTR InstName R9
SYMATTR Value 525k
SYMBOL cap 1392 160 R90
WINDOW 0 0 32 VBottom 2
WINDOW 3 32 32 VTop 2
SYMATTR InstName C4
SYMATTR Value 10µ
SYMBOL res 1216 160 R90
WINDOW 0 0 56 VBottom 2
WINDOW 3 32 56 VTop 2
SYMATTR InstName R10
SYMATTR Value 2.2K
SYMBOL voltage 1040 192 R0
WINDOW 123 0 0 Left 0
WINDOW 39 0 0 Left 0
SYMATTR InstName V4
SYMATTR Value SINE(0 100m 1k)
SYMBOL nmos 160 1024 R0
SYMATTR InstName M3
SYMATTR Value my_IRFP240
SYMBOL voltage 432 832 R0
WINDOW 123 0 0 Left 0
WINDOW 39 0 0 Left 0
SYMATTR InstName V5
SYMATTR Value 9
SYMBOL res 192 864 R0
SYMATTR InstName R11
SYMATTR Value 10.6
SYMBOL cap 656 976 R90
WINDOW 0 0 32 VBottom 2
WINDOW 3 32 32 VTop 2
SYMATTR InstName C5
SYMATTR Value 220µ
SYMBOL res 688 1024 R0
SYMATTR InstName R12
SYMATTR Value 8
SYMBOL voltage -432 1120 R0
WINDOW 123 0 0 Left 0
WINDOW 39 0 0 Left 0
SYMATTR InstName V6
SYMATTR Value SINE(4.48 100m 1k)
TEXT -464 392 Left 2 !.tran 0 1.01 1
TEXT 600 -208 Left 2 !.model my_IRFP240 NMOS(LEVEL=1 VT0=3.973015 KP=4.195658 LAMBDA= 0.028756)
TEXT 624 -160 Left 2 !;op 0 1.01 1
