Version 4
SHEET 1 4004 1320
WIRE 3440 -128 3248 -128
WIRE 3664 -128 3440 -128
WIRE 3248 -112 3248 -128
WIRE 1712 -96 1520 -96
WIRE 1936 -96 1712 -96
WIRE 3440 -96 3440 -128
WIRE 1520 -80 1520 -96
WIRE 208 -64 16 -64
WIRE 432 -64 208 -64
WIRE 1712 -64 1712 -96
WIRE 16 -48 16 -64
WIRE 208 -32 208 -64
WIRE 3440 16 3440 -16
WIRE 3824 16 3440 16
WIRE 3936 16 3888 16
WIRE 1712 48 1712 16
WIRE 2096 48 1712 48
WIRE 2208 48 2160 48
WIRE 3440 48 3440 16
WIRE 208 80 208 48
WIRE 592 80 208 80
WIRE 704 80 656 80
WIRE 1712 80 1712 48
WIRE 3936 96 3936 16
WIRE 208 112 208 80
WIRE 704 128 704 80
WIRE 2880 128 2800 128
WIRE 3088 128 2960 128
WIRE 3248 128 3248 -32
WIRE 3248 128 3152 128
WIRE 3392 128 3248 128
WIRE 1152 160 1072 160
WIRE 1360 160 1232 160
WIRE 1520 160 1520 0
WIRE 1520 160 1424 160
WIRE 1664 160 1520 160
WIRE 2800 160 2800 128
WIRE 3248 176 3248 128
WIRE -352 192 -432 192
WIRE -144 192 -272 192
WIRE 16 192 16 32
WIRE 16 192 -80 192
WIRE 160 192 16 192
WIRE 1072 192 1072 160
WIRE 1520 208 1520 160
WIRE -432 224 -432 192
WIRE 16 240 16 192
WIRE 3440 240 3440 144
WIRE 3936 240 3936 176
WIRE 1712 272 1712 176
WIRE 2208 272 2208 48
WIRE 3248 288 3248 256
WIRE 208 304 208 208
WIRE 704 304 704 208
WIRE 2800 304 2800 240
WIRE 1520 320 1520 288
WIRE 1072 336 1072 272
WIRE 16 352 16 320
WIRE -432 368 -432 304
WIRE 2160 752 1936 752
WIRE 1936 784 1936 752
WIRE 544 800 320 800
WIRE 320 832 320 800
WIRE 1936 896 1936 864
WIRE 2320 896 1936 896
WIRE 2432 896 2384 896
WIRE 1936 928 1936 896
WIRE 320 944 320 912
WIRE 704 944 320 944
WIRE 816 944 768 944
WIRE 2432 944 2432 896
WIRE 320 976 320 944
WIRE 816 992 816 944
WIRE 1744 1008 1296 1008
WIRE 1888 1008 1744 1008
WIRE 1296 1040 1296 1008
WIRE 128 1056 -320 1056
WIRE 272 1056 128 1056
WIRE -320 1088 -320 1056
WIRE 1936 1120 1936 1024
WIRE 2432 1120 2432 1024
WIRE 320 1168 320 1072
WIRE 816 1168 816 1072
WIRE 1296 1184 1296 1120
WIRE -320 1232 -320 1168
FLAG 208 304 0
FLAG 432 16 0
FLAG 704 304 0
FLAG 16 352 0
FLAG -432 368 0
FLAG 208 80 VD
FLAG 16 192 VGS
FLAG 704 80 Vo
FLAG 320 1168 0
FLAG 816 1168 0
FLAG -320 1232 0
FLAG 320 944 VD3
FLAG 128 1056 VGS3
FLAG 816 944 Vo3
FLAG 544 880 0
FLAG 1936 1120 0
FLAG 2432 1120 0
FLAG 1296 1184 0
FLAG 1936 896 VD4
FLAG 1744 1008 VGS4
FLAG 2432 896 Vo4
FLAG 2160 832 0
FLAG 1712 272 0
FLAG 1936 -16 0
FLAG 2208 272 0
FLAG 1520 320 0
FLAG 1072 336 0
FLAG 3440 240 0
FLAG 3664 -48 0
FLAG 3936 240 0
FLAG 3248 288 0
FLAG 2800 304 0
SYMBOL nmos 160 112 R0
SYMATTR InstName M1
SYMATTR Value my_IRFP240
SYMBOL voltage 432 -80 R0
WINDOW 123 0 0 Left 0
WINDOW 39 0 0 Left 0
SYMATTR InstName V1
SYMATTR Value 9
SYMBOL res 192 -48 R0
SYMATTR InstName R1
SYMATTR Value 10
SYMBOL cap 656 64 R90
WINDOW 0 0 32 VBottom 2
WINDOW 3 32 32 VTop 2
SYMATTR InstName C1
SYMATTR Value 220µ
SYMBOL res 688 112 R0
SYMATTR InstName R2
SYMATTR Value 8
SYMBOL res 0 -64 R0
SYMATTR InstName R3
SYMATTR Value 500k
SYMBOL res 0 224 R0
SYMATTR InstName R4
SYMATTR Value 495k
SYMBOL cap -80 176 R90
WINDOW 0 0 32 VBottom 2
WINDOW 3 32 32 VTop 2
SYMATTR InstName C2
SYMATTR Value 10µ
SYMBOL res -256 176 R90
WINDOW 0 0 56 VBottom 2
WINDOW 3 32 56 VTop 2
SYMATTR InstName R5
SYMATTR Value 2.2K
SYMBOL voltage -432 208 R0
WINDOW 123 0 0 Left 0
WINDOW 39 0 0 Left 0
SYMATTR InstName V2
SYMATTR Value SINE(0 100m 1k)
SYMBOL nmos 272 976 R0
SYMATTR InstName M3
SYMATTR Value my_IRFP240
SYMBOL voltage 544 784 R0
WINDOW 123 0 0 Left 0
WINDOW 39 0 0 Left 0
SYMATTR InstName V5
SYMATTR Value 9
SYMBOL res 304 816 R0
SYMATTR InstName R11
SYMATTR Value 12
SYMBOL cap 768 928 R90
WINDOW 0 0 32 VBottom 2
WINDOW 3 32 32 VTop 2
SYMATTR InstName C5
SYMATTR Value 220µ
SYMBOL res 800 976 R0
SYMATTR InstName R12
SYMATTR Value 8
SYMBOL voltage -320 1072 R0
WINDOW 123 0 0 Left 0
WINDOW 39 0 0 Left 0
SYMATTR InstName V6
SYMATTR Value SINE(4.48 100m 1k)
SYMBOL nmos 1888 928 R0
SYMATTR InstName M4
SYMATTR Value IRFP240
SYMBOL voltage 2160 736 R0
WINDOW 123 0 0 Left 0
WINDOW 39 0 0 Left 0
SYMATTR InstName V7
SYMATTR Value 9
SYMBOL res 1920 768 R0
SYMATTR InstName R13
SYMATTR Value 12
SYMBOL cap 2384 880 R90
WINDOW 0 0 32 VBottom 2
WINDOW 3 32 32 VTop 2
SYMATTR InstName C6
SYMATTR Value 220µ
SYMBOL res 2416 928 R0
SYMATTR InstName R14
SYMATTR Value 8
SYMBOL voltage 1296 1024 R0
WINDOW 123 0 0 Left 0
WINDOW 39 0 0 Left 0
SYMATTR InstName V8
SYMATTR Value SINE(4.49 100m 1k)
SYMBOL nmos 1664 80 R0
SYMATTR InstName M2
SYMATTR Value my_IRFP240
SYMBOL voltage 1936 -112 R0
WINDOW 123 0 0 Left 0
WINDOW 39 0 0 Left 0
SYMATTR InstName V3
SYMATTR Value 9
SYMBOL res 1696 -80 R0
SYMATTR InstName R6
SYMATTR Value 10
SYMBOL cap 2160 32 R90
WINDOW 0 0 32 VBottom 2
WINDOW 3 32 32 VTop 2
SYMATTR InstName C3
SYMATTR Value 220µ
SYMBOL res 1504 -96 R0
SYMATTR InstName R8
SYMATTR Value 500k
SYMBOL res 1504 192 R0
SYMATTR InstName R9
SYMATTR Value 495k
SYMBOL cap 1424 144 R90
WINDOW 0 0 32 VBottom 2
WINDOW 3 32 32 VTop 2
SYMATTR InstName C4
SYMATTR Value 10µ
SYMBOL res 1248 144 R90
WINDOW 0 0 56 VBottom 2
WINDOW 3 32 56 VTop 2
SYMATTR InstName R10
SYMATTR Value 100k
SYMBOL voltage 1072 176 R0
WINDOW 123 0 0 Left 0
WINDOW 39 0 0 Left 0
SYMATTR InstName V4
SYMATTR Value SINE(0 10m 1k)
SYMBOL nmos 3392 48 R0
SYMATTR InstName M5
SYMATTR Value my_IRFP240
SYMBOL voltage 3664 -144 R0
WINDOW 123 0 0 Left 0
WINDOW 39 0 0 Left 0
SYMATTR InstName V9
SYMATTR Value 9
SYMBOL res 3424 -112 R0
SYMATTR InstName R7
SYMATTR Value 10
SYMBOL cap 3888 0 R90
WINDOW 0 0 32 VBottom 2
WINDOW 3 32 32 VTop 2
SYMATTR InstName C7
SYMATTR Value 220µ
SYMBOL res 3232 -128 R0
SYMATTR InstName R15
SYMATTR Value 500k
SYMBOL res 3232 160 R0
SYMATTR InstName R16
SYMATTR Value 495k
SYMBOL cap 3152 112 R90
WINDOW 0 0 32 VBottom 2
WINDOW 3 32 32 VTop 2
SYMATTR InstName C8
SYMATTR Value 10µ
SYMBOL res 2976 112 R90
WINDOW 0 0 56 VBottom 2
WINDOW 3 32 56 VTop 2
SYMATTR InstName R17
SYMATTR Value 100k
SYMBOL voltage 2800 144 R0
WINDOW 123 0 0 Left 0
WINDOW 39 0 0 Left 0
SYMATTR InstName V10
SYMATTR Value SINE(0 10m 1k)
SYMBOL res 3920 80 R0
SYMATTR InstName R18
SYMATTR Value 8
TEXT -464 392 Left 2 !.tran 0 1.01 1 5u
TEXT -472 -320 Left 2 !.model my_IRFP240 NMOS(LEVEL=1 VT0=3.973015 KP=4.195658 LAMBDA= 0.028756)
TEXT -472 -296 Left 2 !;op 0 1.01 1
TEXT 1064 -176 Left 2 ;Medicion resistencia de entrada
TEXT 2792 -208 Left 2 ;Medicion resistencia de salida
